Version 4.1
SHEET 1 3816 1108
WIRE -208 16 -384 16
WIRE 272 16 -208 16
WIRE 272 96 272 16
WIRE 896 96 480 96
WIRE -208 144 -208 16
WIRE 112 144 -208 144
WIRE 480 144 480 96
WIRE 480 144 432 144
WIRE 544 144 544 128
WIRE 896 144 896 96
WIRE 944 144 896 144
WIRE 976 144 944 144
WIRE 2080 144 1856 144
WIRE -1392 160 -1392 144
WIRE 1856 160 1856 144
WIRE 944 208 944 144
WIRE -208 224 -208 144
WIRE -32 224 -112 224
WIRE 112 224 48 224
WIRE 544 224 544 208
WIRE 544 224 432 224
WIRE 736 224 544 224
WIRE 896 224 896 144
WIRE 896 224 816 224
WIRE -464 240 -464 176
WIRE 544 240 544 224
WIRE 1856 240 1856 208
WIRE 2080 240 2080 224
WIRE 2080 240 1856 240
WIRE -1392 256 -1392 240
WIRE 1808 256 1808 224
WIRE 112 304 -16 304
WIRE 544 304 432 304
WIRE 944 336 944 288
WIRE -464 368 -464 320
WIRE -16 368 -16 304
WIRE 544 384 432 384
WIRE 704 384 544 384
WIRE 896 384 896 224
WIRE 896 384 784 384
WIRE 544 416 544 384
WIRE -112 432 -112 224
WIRE 896 432 896 384
WIRE -208 528 -208 288
WIRE -112 528 -112 496
WIRE -112 528 -208 528
WIRE -16 528 -16 448
WIRE -16 528 -112 528
WIRE 272 528 272 432
WIRE 272 528 -16 528
WIRE 544 528 544 496
WIRE 896 528 896 496
WIRE 896 528 544 528
WIRE 272 560 272 528
WIRE 544 560 544 528
WIRE -1184 624 -1184 560
WIRE -1184 752 -1184 704
FLAG -464 368 0
FLAG -384 16 Vsupply
FLAG 272 560 0
FLAG 976 144 Vout
FLAG -1392 336 0
FLAG -1392 144 0
FLAG 544 560 0
FLAG 544 128 0
FLAG 944 336 0
FLAG -464 176 Vsupply
FLAG -1184 752 0
SYMBOL PowerProducts\\LT3480 272 272 R0
SYMATTR InstName U1
SYMBOL cap -224 224 R0
SYMATTR InstName C2
SYMATTR Value 2.2µ
SYMBOL cap 912 496 R180
WINDOW 0 24 56 Left 2
WINDOW 3 24 8 Left 2
SYMATTR InstName C4
SYMATTR Value 22µ
SYMBOL voltage -464 224 R0
WINDOW 123 0 0 Left 0
WINDOW 39 24 124 Left 2
SYMATTR SpiceLine Rser=100m
SYMATTR InstName V1
SYMATTR Value 11V
SYMBOL res 64 208 R90
WINDOW 0 0 56 VBottom 2
WINDOW 3 32 56 VTop 2
SYMATTR InstName R2
SYMATTR Value 14k
SYMBOL ind 720 240 R270
WINDOW 0 43 58 VTop 2
WINDOW 3 5 56 VBottom 2
SYMATTR InstName WE_SPC
SYMATTR Value 2.2µ
SYMATTR SpiceLine Ipk=2.1 Rser=0.06608 Rpar=3588 Cpar=2.763p mfg="Würth Elektronik" pn="74408941022 WE-SPC 4818"
SYMBOL res 528 400 R0
SYMATTR InstName R3
SYMATTR Value 100k
SYMBOL res 800 368 R90
WINDOW 0 0 56 VBottom 2
WINDOW 3 32 56 VTop 2
SYMATTR InstName R4
SYMATTR Value 536k
SYMBOL cap -128 432 R0
SYMATTR InstName C1
SYMATTR Value 470p
SYMBOL res -32 352 R0
WINDOW 0 39 15 Left 2
SYMATTR InstName R_T
SYMATTR Value 19.1k
SYMBOL voltage 2080 128 R0
WINDOW 123 0 0 Left 0
WINDOW 39 0 0 Left 0
SYMATTR InstName V2
SYMATTR Value PWL(0 0 2m 0 2.001m 5)
SYMBOL sw 1808 240 R180
WINDOW 0 18 104 Left 2
WINDOW 3 -160 57 Left 2
SYMATTR InstName S1
SYMATTR Value SW_load
SYMBOL voltage -1392 240 R0
WINDOW 123 0 0 Left 0
WINDOW 39 24 124 Left 2
SYMATTR SpiceLine Rser=50
SYMATTR InstName V3
SYMATTR Value SINE(0 1 1k)
SYMBOL res -1408 144 R0
SYMATTR InstName R1
SYMATTR Value 50
SYMBOL cap 528 240 R0
SYMATTR InstName C3
SYMATTR Value 0.47µ
SYMBOL schottky 528 144 R0
WINDOW 3 44 30 Left 2
SYMATTR Value DFLS220L
SYMATTR InstName D1
SYMBOL res 928 192 R0
SYMATTR InstName R5
SYMATTR Value 50
SYMBOL voltage -1184 608 R0
WINDOW 3 -452 196 Left 2
WINDOW 123 0 0 Left 0
WINDOW 39 0 0 Left 0
SYMATTR Value PWL(0 0 0.999m 0 1m 10 1.999m 10 2m 7 2.999m 7 3m 10 3.999m 10 4m 0)
SYMATTR InstName V_pwl
SYMBOL load 1024 480 R0
WINDOW 123 0 0 Left 0
WINDOW 39 15 -25 Left 2
WINDOW 0 75 -23 Left 2
WINDOW 3 13 91 Left 2
SYMATTR SpiceLine load
SYMATTR InstName I1
SYMATTR Value PWL(0 0 250u 0 250.0001u 50m 675u 50m 675.0001u 1 900u 1 900.0001u 0 1400u 0 1400.0001u 50m 1675u 50m 1675.0001u 1 1900u 1 1900.0001u 0 )
TEXT -448 800 Left 2 !.OPTIONS cshunt=1e-14 gshunt=1e-14
TEXT -440 928 Left 2 ;.tran 0 0.0028s 0.0023s
TEXT 288 752 Left 2 ;.step param Iload 50m 2 50m
TEXT 1592 288 Left 2 !.model SW_load SW(Ron = 10p Roff = 100G Vt=0.5 vh=0.1)
TEXT 1560 72 Left 2 ;Zalaczanie obciazenia po krotkim czasie od ustalenia napiecia wyjsciowego przetwornicy
TEXT 296 936 Left 2 !.meas tran Vavg AVG V(vout)\n.meas TRAN IsupAvg AVG -I(V1)
TEXT -440 968 Left 2 !.tran 2m
TEXT -1408 88 Left 2 ;Wymuszenie kroku calkowania
TEXT -1496 536 Left 2 ;Zrodlo napiecia ze zmienna amplituda 0 -> 10 -> 7 -> 0
TEXT 296 904 Left 2 ;Srednie wartosci napiecia wyjsciowego i pradu wejsciowego
TEXT 288 720 Left 2 ;Analiza paramteryczna dla zmiennego pradu obciazenia
TEXT 1040 424 Left 2 ;Zrodlo obciazenia pradowego 0 -> 50m -> 1 -> 0
TEXT -448 768 Left 2 ;Dodatkowe opcje
TEXT -432 896 Left 2 ;Parametry do analizy tranzent
TEXT -328 -104 Left 2 ;Uklad zostal wykonany zgodnie ze wskazowkami z noty katalogowej dla ukladu o Vout = 5V Iout_max = 2A
