Version 4.1
SHEET 1 1320 864
WIRE 0 -192 -208 -192
WIRE 96 -192 0 -192
WIRE 192 -192 96 -192
WIRE 0 -160 0 -192
WIRE 96 -160 96 -192
WIRE -560 -128 -560 -176
WIRE 0 -64 0 -96
WIRE 96 -64 96 -96
WIRE -560 0 -560 -48
WIRE 192 128 192 -192
WIRE 336 160 240 160
WIRE 448 160 336 160
WIRE -32 176 -144 176
WIRE 96 176 48 176
WIRE 176 176 96 176
WIRE 192 240 192 192
WIRE -560 304 -560 176
WIRE 96 384 96 176
WIRE 176 384 96 384
WIRE 336 384 336 160
WIRE 336 384 256 384
WIRE -560 464 -560 384
FLAG 192 240 0
FLAG -560 0 0
FLAG -560 -176 +5V
FLAG -208 -192 +5V
FLAG -560 464 0
FLAG 0 -64 0
FLAG 96 -64 0
FLAG 448 160 OUT
FLAG -560 176 IN
FLAG -144 176 IN
SYMBOL OpAmps\\LTC6255 208 160 R0
SYMATTR InstName U1
SYMBOL voltage -560 -144 R0
WINDOW 123 0 0 Left 0
WINDOW 39 0 0 Left 0
SYMATTR InstName V1
SYMATTR Value 5
SYMBOL voltage -560 288 R0
WINDOW 123 0 0 Left 0
WINDOW 39 0 0 Left 0
SYMATTR InstName V2
SYMATTR Value PULSE(0 5 0 0.5 0.5 0 1)
SYMBOL res 64 160 R90
WINDOW 0 0 56 VBottom 2
WINDOW 3 32 56 VTop 2
SYMATTR InstName R1
SYMATTR Value 1k
SYMBOL res 272 368 R90
WINDOW 0 0 56 VBottom 2
WINDOW 3 32 56 VTop 2
SYMATTR InstName R3
SYMATTR Value {Rval}
SYMBOL cap -16 -160 R0
SYMATTR InstName C1
SYMATTR Value 1µ
SYMATTR SpiceLine V=25
SYMBOL cap 80 -160 R0
SYMATTR InstName C2
SYMATTR Value 100n
SYMATTR SpiceLine V=16
TEXT -184 560 Left 2 !.step param Rval list 1e14 1.65k 2.49k 5.1k 24.3k
TEXT -624 544 Left 2 !.tran 0 6
TEXT -760 688 Left 2 ;Napiecie przelaczania komparatora wynosi 2V
TEXT -176 616 Left 2 ;.step param t1 list 0.99 1.01
TEXT -176 648 Left 2 ;.step param t2 list 0.99 1.01
TEXT -176 680 Left 2 ;.step param t3 list 0.99 1.01
TEXT -176 712 Left 2 ;.step param t4 list 0.99 1.01
TEXT -176 744 Left 2 ;.step param t5 list 0.99 1.01
