Version 4.1
SHEET 1 3508 864
WIRE 2160 -240 1952 -240
WIRE 2256 -240 2160 -240
WIRE 2352 -240 2256 -240
WIRE 1440 -224 1232 -224
WIRE 1536 -224 1440 -224
WIRE 1632 -224 1536 -224
WIRE 720 -208 512 -208
WIRE 816 -208 720 -208
WIRE 912 -208 816 -208
WIRE 2160 -208 2160 -240
WIRE 2256 -208 2256 -240
WIRE 0 -192 -208 -192
WIRE 96 -192 0 -192
WIRE 192 -192 96 -192
WIRE 1440 -192 1440 -224
WIRE 1536 -192 1536 -224
WIRE 720 -176 720 -208
WIRE 816 -176 816 -208
WIRE 0 -160 0 -192
WIRE 96 -160 96 -192
WIRE -944 -128 -944 -176
WIRE -848 -128 -848 -176
WIRE -752 -128 -752 -176
WIRE -656 -128 -656 -176
WIRE 2160 -112 2160 -144
WIRE 2256 -112 2256 -144
WIRE 1440 -96 1440 -128
WIRE 1536 -96 1536 -128
WIRE 720 -80 720 -112
WIRE 816 -80 816 -112
WIRE 0 -64 0 -96
WIRE 96 -64 96 -96
WIRE -944 0 -944 -48
WIRE -848 0 -848 -48
WIRE -752 0 -752 -48
WIRE -656 0 -656 -48
WIRE 2352 80 2352 -240
WIRE 1632 96 1632 -224
WIRE 912 112 912 -208
WIRE 2496 112 2400 112
WIRE 2608 112 2496 112
WIRE 192 128 192 -192
WIRE 1776 128 1680 128
WIRE 1888 128 1776 128
WIRE 2128 128 2016 128
WIRE 2256 128 2208 128
WIRE 2336 128 2256 128
WIRE 1056 144 960 144
WIRE 1168 144 1056 144
WIRE 1408 144 1296 144
WIRE 1536 144 1488 144
WIRE 1616 144 1536 144
WIRE 336 160 240 160
WIRE 448 160 336 160
WIRE 688 160 576 160
WIRE 816 160 768 160
WIRE 896 160 816 160
WIRE -32 176 -144 176
WIRE 96 176 48 176
WIRE 176 176 96 176
WIRE 2352 192 2352 144
WIRE 1632 208 1632 160
WIRE 912 224 912 176
WIRE 192 240 192 192
WIRE -560 304 -560 176
WIRE 2256 336 2256 128
WIRE 2336 336 2256 336
WIRE 2496 336 2496 112
WIRE 2496 336 2416 336
WIRE 1536 352 1536 144
WIRE 1616 352 1536 352
WIRE 1776 352 1776 128
WIRE 1776 352 1696 352
WIRE 816 368 816 160
WIRE 896 368 816 368
WIRE 1056 368 1056 144
WIRE 1056 368 976 368
WIRE 96 384 96 176
WIRE 176 384 96 384
WIRE 336 384 336 160
WIRE 336 384 256 384
WIRE -560 464 -560 384
FLAG 192 240 0
FLAG -208 -192 +5V1
FLAG -560 464 0
FLAG 0 -64 0
FLAG 96 -64 0
FLAG 448 160 OUT1
FLAG -560 176 IN
FLAG -144 176 IN
FLAG 912 224 0
FLAG 512 -208 +5V2
FLAG 720 -80 0
FLAG 816 -80 0
FLAG 1168 144 OUT2
FLAG 576 160 IN
FLAG 1632 208 0
FLAG 1232 -224 +5V3
FLAG 1440 -96 0
FLAG 1536 -96 0
FLAG 1888 128 OUT3
FLAG 1296 144 IN
FLAG 2352 192 0
FLAG 1952 -240 +5V4
FLAG 2160 -112 0
FLAG 2256 -112 0
FLAG 2608 112 OUT4
FLAG 2016 128 IN
FLAG -656 0 0
FLAG -656 -176 +5V1
FLAG -752 0 0
FLAG -752 -176 +5V2
FLAG -848 0 0
FLAG -848 -176 +5V3
FLAG -944 0 0
FLAG -944 -176 +5V4
SYMBOL OpAmps\\LTC6255 208 160 R0
SYMATTR InstName U1
SYMBOL voltage -560 288 R0
WINDOW 123 0 0 Left 0
WINDOW 39 0 0 Left 0
SYMATTR InstName V2
SYMATTR Value PULSE(0 5 0 0.5 0.5 0 1)
SYMBOL res 64 160 R90
WINDOW 0 0 56 VBottom 2
WINDOW 3 32 56 VTop 2
SYMATTR InstName R1
SYMATTR Value {R22}
SYMBOL res 272 368 R90
WINDOW 0 0 56 VBottom 2
WINDOW 3 32 56 VTop 2
SYMATTR InstName R3
SYMATTR Value {R23}
SYMBOL cap -16 -160 R0
SYMATTR InstName C1
SYMATTR Value 1µ
SYMATTR SpiceLine V=25
SYMBOL cap 80 -160 R0
SYMATTR InstName C2
SYMATTR Value 100n
SYMATTR SpiceLine V=16
SYMBOL OpAmps\\LTC6255 928 144 R0
SYMATTR InstName U2
SYMBOL res 784 144 R90
WINDOW 0 0 56 VBottom 2
WINDOW 3 32 56 VTop 2
SYMATTR InstName R2
SYMATTR Value {R22}
SYMBOL res 992 352 R90
WINDOW 0 0 56 VBottom 2
WINDOW 3 32 56 VTop 2
SYMATTR InstName R4
SYMATTR Value {R24}
SYMBOL cap 704 -176 R0
SYMATTR InstName C3
SYMATTR Value 1µ
SYMATTR SpiceLine V=25
SYMBOL cap 800 -176 R0
SYMATTR InstName C4
SYMATTR Value 100n
SYMATTR SpiceLine V=16
SYMBOL OpAmps\\LTC6255 1648 128 R0
SYMATTR InstName U3
SYMBOL res 1504 128 R90
WINDOW 0 0 56 VBottom 2
WINDOW 3 32 56 VTop 2
SYMATTR InstName R5
SYMATTR Value {R22}
SYMBOL res 1712 336 R90
WINDOW 0 0 56 VBottom 2
WINDOW 3 32 56 VTop 2
SYMATTR InstName R6
SYMATTR Value {R25}
SYMBOL cap 1424 -192 R0
SYMATTR InstName C5
SYMATTR Value 1µ
SYMATTR SpiceLine V=25
SYMBOL cap 1520 -192 R0
SYMATTR InstName C6
SYMATTR Value 100n
SYMATTR SpiceLine V=16
SYMBOL OpAmps\\LTC6255 2368 112 R0
SYMATTR InstName U4
SYMBOL res 2224 112 R90
WINDOW 0 0 56 VBottom 2
WINDOW 3 32 56 VTop 2
SYMATTR InstName R7
SYMATTR Value {R22}
SYMBOL res 2432 320 R90
WINDOW 0 0 56 VBottom 2
WINDOW 3 32 56 VTop 2
SYMATTR InstName R8
SYMATTR Value {R26}
SYMBOL cap 2144 -208 R0
SYMATTR InstName C7
SYMATTR Value 1µ
SYMATTR SpiceLine V=25
SYMBOL cap 2240 -208 R0
SYMATTR InstName C8
SYMATTR Value 100n
SYMATTR SpiceLine V=16
SYMBOL voltage -656 -144 R0
WINDOW 123 0 0 Left 0
WINDOW 39 0 0 Left 0
SYMATTR InstName V3
SYMATTR Value 5
SYMBOL voltage -752 -144 R0
WINDOW 123 0 0 Left 0
WINDOW 39 0 0 Left 0
SYMATTR InstName V4
SYMATTR Value 5
SYMBOL voltage -848 -144 R0
WINDOW 123 0 0 Left 0
WINDOW 39 0 0 Left 0
SYMATTR InstName V5
SYMATTR Value 5
SYMBOL voltage -944 -144 R0
WINDOW 123 0 0 Left 0
WINDOW 39 0 0 Left 0
SYMATTR InstName V6
SYMATTR Value 5
TEXT -184 560 Left 2 ;.step param Rval list 1e14 {R23} {R24} {R25} {R26}
TEXT -624 544 Left 2 !.tran 6 startup
TEXT -760 688 Left 2 ;Napiecie przelaczania komparatora wynosi 2V
TEXT 224 616 Left 2 !.param R22={1k*t1}
TEXT 224 648 Left 2 !.param R23={1.65k*t2}
TEXT 224 680 Left 2 !.param R24={2.49k*t2}
TEXT 224 712 Left 2 !.param R25={5.1k*t2}
TEXT 224 744 Left 2 !.param R26={24.3k*t2}
TEXT -160 800 Left 2 !.step param t1 list 0.99 1.01
TEXT -160 832 Left 2 !.step param t2 list 0.99 1.01
