Version 4.1
SHEET 1 1320 864
WIRE 0 -192 -208 -192
WIRE 96 -192 0 -192
WIRE 192 -192 96 -192
WIRE 0 -160 0 -192
WIRE 96 -160 96 -192
WIRE -560 -128 -560 -176
WIRE 0 -64 0 -96
WIRE 96 -64 96 -96
WIRE -560 0 -560 -48
WIRE 192 128 192 -192
WIRE 448 160 240 160
WIRE -32 176 -144 176
WIRE 176 176 48 176
WIRE 192 240 192 192
WIRE -912 304 -912 208
WIRE -560 304 -560 176
WIRE -912 464 -912 384
WIRE -560 464 -560 384
FLAG 192 240 0
FLAG -560 0 0
FLAG -560 -176 +5V
FLAG -208 -192 +5V
FLAG -560 464 0
FLAG 0 -64 0
FLAG 96 -64 0
FLAG 448 160 OUT
FLAG -560 176 IN
FLAG -144 176 IN
FLAG -912 464 0
FLAG -912 208 TRIANGLE
SYMBOL OpAmps\\LTC6255 208 160 R0
SYMATTR InstName U1
SYMBOL voltage -560 -144 R0
WINDOW 123 0 0 Left 0
WINDOW 39 0 0 Left 0
SYMATTR InstName V1
SYMATTR Value 5
SYMBOL voltage -912 288 R0
WINDOW 123 0 0 Left 0
WINDOW 39 0 0 Left 0
WINDOW 3 -350 103 Left 2
SYMATTR InstName V2
SYMATTR Value PULSE(0 5 0 0.5 0.5 0 1)
SYMBOL res 64 160 R90
WINDOW 0 0 56 VBottom 2
WINDOW 3 32 56 VTop 2
SYMATTR InstName R1
SYMATTR Value 1k
SYMBOL cap -16 -160 R0
SYMATTR InstName C1
SYMATTR Value 1µ
SYMATTR SpiceLine V=25
SYMBOL cap 80 -160 R0
SYMATTR InstName C2
SYMATTR Value 100n
SYMATTR SpiceLine V=16
SYMBOL bv -560 288 R0
SYMATTR InstName B1
SYMATTR Value V=V(triangle) + white(1e3*time)
TEXT -768 640 Left 2 !.tran 0 6
TEXT -760 688 Left 2 ;Napiecie przelaczania komparatora wynosi 2V
